  
       XFOIL         Version 6.99
  
 Calculated polar for: Generated Airfoil 4                             
  
 1 1 Reynolds number fixed          Mach number fixed         
  
 xtrf =   1.000 (top)        1.000 (bottom)  
 Mach =   0.000     Re =     0.200 e 6     Ncrit =   9.000  9.000
  
   alpha    CL        CD       CDp       CM     Top_Xtr  Bot_Xtr  Top_Itr  Bot_Itr
  ------ -------- --------- --------- -------- -------- -------- -------- --------
   0.000   1.1899   0.01818   0.00439  -0.2717   0.5676   0.0565  30.4927 102.1586
   0.500   1.2659   0.01824   0.00404  -0.2762   0.5554   0.0626  31.1696 102.7368
   1.000   1.3434   0.01816   0.00415  -0.2815   0.5429   0.3390  31.8590 118.6812
   1.500   1.4024   0.01854   0.00480  -0.2823   0.5316   0.6373  32.4866 134.5763
   2.500   1.4910   0.01959   0.00554  -0.2770   0.5128   0.8208  33.5379 145.1495
   3.000   1.5393   0.02007   0.00564  -0.2756   0.5043   0.8781  34.0106 148.8334
   3.500   1.5704   0.02027   0.00582  -0.2708   0.4959   1.0000  34.4827 160.0000
   4.000   1.6377   0.02113   0.00595  -0.2740   0.4876   1.0000  34.9467 160.0000
   4.500   1.6868   0.02196   0.00636  -0.2733   0.4790   1.0000  35.4343 160.0000
   5.000   1.7437   0.02277   0.00656  -0.2742   0.4716   1.0000  35.8530 160.0000
   5.500   1.7932   0.02374   0.00700  -0.2736   0.4643   1.0000  36.2698 160.0000
   6.000   1.8365   0.02438   0.00701  -0.2716   0.4547   1.0000  36.8176 160.0000
   6.500   1.8653   0.02509   0.00708  -0.2667   0.4437   1.0000  37.4523 160.0000
   7.000   1.9139   0.02580   0.00686  -0.2659   0.4342   1.0000  38.0002 160.0000
   7.500   1.9371   0.02680   0.00739  -0.2601   0.4264   1.0000  38.4554 160.0000
   8.000   1.9804   0.02770   0.00750  -0.2585   0.4196   1.0000  38.8493 160.0000
   8.500   2.0150   0.02889   0.00791  -0.2552   0.4128   1.0000  39.2531 160.0000
   9.000   2.0429   0.02997   0.00815  -0.2508   0.4047   1.0000  39.7266 160.0000
   9.500   2.0822   0.03114   0.00831  -0.2486   0.3982   1.0000  40.1157 160.0000
  10.000   2.1020   0.03274   0.00901  -0.2431   0.3912   1.0000  40.5297 160.0000
  10.500   2.1383   0.03377   0.00875  -0.2405   0.3830   1.0000  41.0205 160.0000
  11.000   2.1357   0.03604   0.00983  -0.2318   0.3736   1.0000  41.5909 160.0000
  11.500   2.1551   0.03780   0.01011  -0.2269   0.3648   1.0000  42.1285 160.0000
  12.000   2.1592   0.04053   0.01141  -0.2204   0.3562   1.0000  42.6551 160.0000
  12.500   2.1720   0.04308   0.01228  -0.2156   0.3478   1.0000  43.1784 160.0000
  13.000   2.1726   0.04665   0.01412  -0.2099   0.3391   1.0000  43.7178 160.0000
  13.500   2.1777   0.05033   0.01590  -0.2053   0.3306   1.0000  44.2544 160.0000
  14.000   2.1753   0.05482   0.01829  -0.2007   0.3205   1.0000  44.8956 160.0000
  14.500   2.1596   0.06124   0.02243  -0.1963   0.3094   1.0000  45.6097 160.0000
  15.000   2.1452   0.06819   0.02693  -0.1930   0.2972   1.0000  46.3978 160.0000
  15.500   2.1237   0.07667   0.03285  -0.1907   0.2835   1.0000  47.2998 160.0000
  16.000   2.0981   0.08647   0.04023  -0.1896   0.2695   1.0000  48.2387 160.0000
