  
       XFOIL         Version 6.99
  
 Calculated polar for: Airfoil                                         
  
 1 1 Reynolds number fixed          Mach number fixed         
  
 xtrf =   1.000 (top)        1.000 (bottom)  
 Mach =   0.000     Re =     0.200 e 6     Ncrit =   9.000  9.000
  
   alpha    CL        CD       CDp       CM     Top_Xtr  Bot_Xtr  Top_Itr  Bot_Itr
  ------ -------- --------- --------- -------- -------- -------- -------- --------
   0.000   1.2036   0.01951   0.00561  -0.2658   0.4565   0.2007  34.5157 112.1425
   0.500   1.2656   0.01992   0.00568  -0.2666   0.4456   0.2247  35.0911 113.3949
   1.000   1.3227   0.02025   0.00582  -0.2663   0.4350   0.2527  35.6532 114.8411
   1.500   1.3815   0.02079   0.00604  -0.2664   0.4253   0.2822  36.1690 116.3737
   2.000   1.4362   0.02124   0.00623  -0.2657   0.4154   0.3134  36.7005 118.0227
   2.500   1.4936   0.02189   0.00656  -0.2656   0.4069   0.3435  37.1580 119.6348
   3.000   1.5463   0.02236   0.00683  -0.2645   0.3975   0.3737  37.6654 121.2736
   3.500   1.6034   0.02311   0.00709  -0.2645   0.3896   0.4066  38.0975 123.0647
   4.000   1.6541   0.02366   0.00750  -0.2631   0.3810   0.4385  38.5667 124.8161
   4.500   1.7120   0.02448   0.00768  -0.2633   0.3731   0.4754  39.0025 126.8479
   5.000   1.7535   0.02477   0.00783  -0.2600   0.3621   0.5131  39.6154 128.9408
   5.500   1.7984   0.02520   0.00774  -0.2576   0.3507   0.5590  40.2563 131.5317
   6.000   1.8433   0.02566   0.00784  -0.2552   0.3416   0.6246  40.7739 135.3016
   6.500   1.8856   0.02611   0.00814  -0.2523   0.3344   1.0000  41.1821 160.0000
   7.000   1.9244   0.02680   0.00822  -0.2488   0.3251   1.0000  41.7172 160.0000
   7.500   1.9669   0.02778   0.00842  -0.2462   0.3176   1.0000  42.1567 160.0000
   8.000   2.0012   0.02874   0.00880  -0.2420   0.3101   1.0000  42.5950 160.0000
   8.500   2.0412   0.02979   0.00888  -0.2390   0.3028   1.0000  43.0220 160.0000
   9.000   2.0647   0.03093   0.00946  -0.2330   0.2947   1.0000  43.5053 160.0000
   9.500   2.0972   0.03213   0.00966  -0.2289   0.2876   1.0000  43.9278 160.0000
  10.000   2.1221   0.03368   0.01041  -0.2236   0.2805   1.0000  44.3635 160.0000
  10.500   2.1468   0.03524   0.01096  -0.2186   0.2735   1.0000  44.7884 160.0000
  11.000   2.1704   0.03713   0.01171  -0.2136   0.2668   1.0000  45.2019 160.0000
  11.500   2.1871   0.03929   0.01275  -0.2079   0.2595   1.0000  45.6517 160.0000
  12.000   2.2029   0.04170   0.01369  -0.2026   0.2521   1.0000  46.1132 160.0000
  12.500   2.2107   0.04475   0.01542  -0.1968   0.2444   1.0000  46.6016 160.0000
  13.000   2.2191   0.04809   0.01698  -0.1918   0.2373   1.0000  47.0539 160.0000
  13.500   2.2169   0.05258   0.01984  -0.1867   0.2293   1.0000  47.5768 160.0000
  14.000   2.2145   0.05761   0.02279  -0.1828   0.2218   1.0000  48.0606 160.0000
  14.500   2.2033   0.06429   0.02747  -0.1799   0.2137   1.0000  48.6016 160.0000
  15.000   2.1907   0.07183   0.03262  -0.1784   0.2063   1.0000  49.0888 160.0000
  15.500   2.1692   0.08149   0.04001  -0.1785   0.1983   1.0000  49.6336 160.0000
  16.000   2.1475   0.09168   0.04801  -0.1798   0.1911   1.0000  50.1259 160.0000
