  
       XFOIL         Version 6.99
  
 Calculated polar for: Generated Airfoil 3                             
  
 1 1 Reynolds number fixed          Mach number fixed         
  
 xtrf =   1.000 (top)        1.000 (bottom)  
 Mach =   0.000     Re =     0.200 e 6     Ncrit =   9.000  9.000
  
   alpha    CL        CD       CDp       CM     Top_Xtr  Bot_Xtr  Top_Itr  Bot_Itr
  ------ -------- --------- --------- -------- -------- -------- -------- --------
   0.000   1.1092   0.01949   0.00634  -0.2518   0.4715   0.2070  33.1441 112.8791
   0.500   1.1689   0.01966   0.00646  -0.2524   0.4637   0.2308  33.5519 114.0817
   1.000   1.2297   0.02002   0.00658  -0.2532   0.4571   0.2575  33.9026 115.4476
   2.000   1.3448   0.02079   0.00710  -0.2535   0.4430   0.3181  34.6489 118.6486
   2.500   1.4060   0.02134   0.00726  -0.2545   0.4374   0.3536  34.9520 120.5756
   3.000   1.4619   0.02184   0.00776  -0.2545   0.4312   0.3947  35.2852 122.8094
   3.500   1.5210   0.02221   0.00810  -0.2551   0.4247   0.4582  35.6383 126.1948
   4.000   1.5619   0.02218   0.00868  -0.2514   0.4200   0.9089  35.8919 150.8196
   4.500   1.6102   0.02304   0.00920  -0.2498   0.4150   1.0000  36.1665 160.0000
   5.000   1.6619   0.02389   0.00979  -0.2489   0.4092   1.0000  36.4909 160.0000
   5.500   1.7170   0.02437   0.00965  -0.2486   0.4024   1.0000  36.8654 160.0000
   6.000   1.7651   0.02518   0.01002  -0.2471   0.3951   1.0000  37.2765 160.0000
   6.500   1.8142   0.02588   0.01032  -0.2458   0.3888   1.0000  37.6350 160.0000
   7.000   1.8697   0.02657   0.01014  -0.2458   0.3827   1.0000  37.9774 160.0000
   7.500   1.9081   0.02720   0.01051  -0.2424   0.3745   1.0000  38.4513 160.0000
   8.000   1.9568   0.02746   0.00997  -0.2409   0.3667   1.0000  38.9009 160.0000
   8.500   1.9944   0.02826   0.01023  -0.2375   0.3587   1.0000  39.3706 160.0000
   9.000   2.0362   0.02875   0.00998  -0.2349   0.3513   1.0000  39.8110 160.0000
   9.500   2.0738   0.02970   0.01015  -0.2316   0.3445   1.0000  40.2195 160.0000
  10.000   2.1030   0.03041   0.01004  -0.2268   0.3357   1.0000  40.7488 160.0000
  10.500   2.1256   0.03143   0.01010  -0.2209   0.3275   1.0000  41.2514 160.0000
  11.000   2.1408   0.03252   0.01014  -0.2139   0.3176   1.0000  41.8694 160.0000
  11.500   2.1498   0.03429   0.01081  -0.2065   0.3060   1.0000  42.5987 160.0000
  12.000   2.1567   0.03652   0.01166  -0.1995   0.2929   1.0000  43.4435 160.0000
  12.500   2.1528   0.03986   0.01330  -0.1924   0.2747   1.0000  44.6466 160.0000
  13.000   2.1333   0.04538   0.01660  -0.1858   0.2495   1.0000  46.3665 160.0000
  13.500   2.0864   0.05564   0.02375  -0.1816   0.2154   1.0000  48.8015 160.0000
  14.000   2.0196   0.07149   0.03586  -0.1818   0.1846   1.0000  51.1172 160.0000
  14.500   1.9434   0.09072   0.05184  -0.1848   0.1585   1.0000  53.1505 160.0000
  15.000   1.8683   0.11119   0.07107  -0.1900   0.1314   1.0000  55.3294 160.0000
  15.500   1.7981   0.13184   0.09386  -0.1972   0.0993   1.0000  58.0369 160.0000
  16.000   1.7467   0.14952   0.11662  -0.2048   0.0752   1.0000  60.2425 160.0000
