  
       XFOIL         Version 6.99
  
 Calculated polar for: G0N3                                            
  
 1 1 Reynolds number fixed          Mach number fixed         
  
 xtrf =   1.000 (top)        1.000 (bottom)  
 Mach =   0.000     Re =     0.200 e 6     Ncrit =   9.000  9.000
  
   alpha    CL        CD       CDp       CM     Top_Xtr  Bot_Xtr  Top_Itr  Bot_Itr
  ------ -------- --------- --------- -------- -------- -------- -------- --------
   0.000   1.2043   0.01771   0.00528  -0.2659   0.5554   0.0509  30.9572 100.2941
   0.500   1.2690   0.01756   0.00484  -0.2673   0.5408   0.0484  31.7752 100.0531
   1.000   1.3359   0.01764   0.00456  -0.2695   0.5275   0.0577  32.5218 100.9609
   1.500   1.4058   0.01772   0.00481  -0.2726   0.5148   0.3542  33.2342 118.2483
   2.000   1.4655   0.01809   0.00514  -0.2733   0.5030   0.5304  33.9010 128.0860
   2.500   1.5119   0.01833   0.00573  -0.2709   0.4918   0.8047  34.5348 143.7468
   3.000   1.5535   0.01863   0.00580  -0.2677   0.4822   1.0000  35.0854 160.0000
   3.500   1.6068   0.01928   0.00609  -0.2672   0.4715   1.0000  35.6939 160.0000
   4.000   1.6606   0.02007   0.00638  -0.2670   0.4619   1.0000  36.2488 160.0000
   4.500   1.7126   0.02078   0.00665  -0.2663   0.4522   1.0000  36.8070 160.0000
   5.000   1.7614   0.02153   0.00695  -0.2650   0.4413   1.0000  37.4363 160.0000
   5.500   1.8071   0.02212   0.00690  -0.2630   0.4281   1.0000  38.2089 160.0000
   6.000   1.8519   0.02273   0.00683  -0.2610   0.4151   1.0000  38.9688 160.0000
   6.500   1.8948   0.02354   0.00725  -0.2587   0.4055   1.0000  39.5367 160.0000
   7.000   1.9435   0.02444   0.00739  -0.2576   0.3972   1.0000  40.0305 160.0000
   7.500   1.9834   0.02537   0.00788  -0.2548   0.3886   1.0000  40.5433 160.0000
   8.000   2.0268   0.02632   0.00798  -0.2528   0.3797   1.0000  41.0770 160.0000
   8.500   2.0598   0.02733   0.00836  -0.2488   0.3702   1.0000  41.6514 160.0000
   9.000   2.0928   0.02846   0.00855  -0.2449   0.3611   1.0000  42.2010 160.0000
   9.500   2.1141   0.02962   0.00877  -0.2389   0.3504   1.0000  42.8583 160.0000
  10.000   2.1335   0.03113   0.00931  -0.2329   0.3402   1.0000  43.4935 160.0000
  10.500   2.1564   0.03273   0.00966  -0.2278   0.3307   1.0000  44.0816 160.0000
  11.000   2.1699   0.03480   0.01057  -0.2217   0.3208   1.0000  44.7079 160.0000
  11.500   2.1836   0.03717   0.01154  -0.2161   0.3109   1.0000  45.3368 160.0000
  12.000   2.1914   0.04004   0.01272  -0.2104   0.2997   1.0000  46.0491 160.0000
  12.500   2.1927   0.04372   0.01470  -0.2048   0.2875   1.0000  46.8435 160.0000
  13.000   2.1905   0.04823   0.01726  -0.1999   0.2745   1.0000  47.6995 160.0000
  13.500   2.1870   0.05349   0.02040  -0.1961   0.2623   1.0000  48.5141 160.0000
  14.000   2.1794   0.05978   0.02435  -0.1930   0.2501   1.0000  49.3354 160.0000
  14.500   2.1655   0.06746   0.02946  -0.1908   0.2366   1.0000  50.2681 160.0000
  15.000   2.1441   0.07680   0.03611  -0.1896   0.2211   1.0000  51.3533 160.0000
  15.500   2.1141   0.08814   0.04480  -0.1898   0.2030   1.0000  52.6471 160.0000
