  
       XFOIL         Version 6.99
  
 Calculated polar for: Airfoil                                         
  
 1 1 Reynolds number fixed          Mach number fixed         
  
 xtrf =   1.000 (top)        1.000 (bottom)  
 Mach =   0.000     Re =     0.200 e 6     Ncrit =   9.000  9.000
  
   alpha    CL        CD       CDp       CM     Top_Xtr  Bot_Xtr  Top_Itr  Bot_Itr
  ------ -------- --------- --------- -------- -------- -------- -------- --------
   0.000   1.1321   0.01557   0.00286  -0.2776   0.5954   0.3180  27.9807 118.3615
   0.500   1.1758   0.01672   0.00374  -0.2741   0.5709   0.3668  29.1420 120.6627
   1.000   1.2259   0.01761   0.00427  -0.2723   0.5504   0.3964  30.1170 122.0838
   2.000   1.3377   0.01863   0.00458  -0.2720   0.5156   0.4242  31.7851 123.4603
   2.500   1.3959   0.01917   0.00474  -0.2724   0.5011   0.4392  32.4857 124.2170
   3.000   1.4560   0.01984   0.00488  -0.2733   0.4877   0.4555  33.1341 125.0528
   3.500   1.5083   0.02037   0.00513  -0.2724   0.4751   0.4692  33.7495 125.7683
   4.000   1.5655   0.02106   0.00544  -0.2727   0.4639   0.4847  34.3007 126.5849
   4.500   1.6189   0.02169   0.00554  -0.2721   0.4512   0.4999  34.9319 127.3995
   5.000   1.6592   0.02215   0.00566  -0.2688   0.4366   0.5155  35.6625 128.2494
   5.500   1.7030   0.02275   0.00573  -0.2662   0.4228   0.5319  36.3619 129.1537
   6.000   1.7463   0.02338   0.00570  -0.2636   0.4089   0.5493  37.0726 130.1241
   6.500   1.7788   0.02391   0.00574  -0.2587   0.3937   0.5669  37.8654 131.1229
   7.000   1.8114   0.02457   0.00585  -0.2540   0.3780   0.5851  38.6989 132.1715
   7.500   1.8441   0.02535   0.00596  -0.2495   0.3617   0.6067  39.5808 133.4282
   8.000   1.8748   0.02626   0.00609  -0.2446   0.3434   0.6310  40.5891 134.8533
   8.500   1.8976   0.02742   0.00631  -0.2385   0.3192   0.6594  41.9595 136.5189
  10.000   1.8596   0.04199   0.01499  -0.2086   0.0686   1.0000  60.7799 160.0000
  10.500   1.8590   0.04703   0.01846  -0.2024   0.0616   1.0000  61.6719 160.0000
  11.000   1.8522   0.05312   0.02294  -0.1968   0.0583   1.0000  62.1110 160.0000
  11.500   1.8443   0.05994   0.02817  -0.1928   0.0560   1.0000  62.4321 160.0000
  12.000   1.8285   0.06866   0.03520  -0.1902   0.0543   1.0000  62.6802 160.0000
  12.500   1.8057   0.07951   0.04433  -0.1897   0.0530   1.0000  62.8676 160.0000
  13.000   1.7819   0.09136   0.05475  -0.1906   0.0519   1.0000  63.0243 160.0000
  13.500   1.7725   0.10106   0.06362  -0.1918   0.0507   1.0000  63.2068 160.0000
  14.000   1.7672   0.10992   0.07213  -0.1930   0.0496   1.0000  63.3912 160.0000
  14.500   1.7685   0.11741   0.07965  -0.1939   0.0482   1.0000  63.6002 160.0000
  15.000   1.7767   0.12330   0.08571  -0.1943   0.0468   1.0000  63.8273 160.0000
  15.500   1.7972   0.12641   0.08854  -0.1929   0.0455   1.0000  64.0478 160.0000
  16.000   1.8123   0.13106   0.09384  -0.1932   0.0440   1.0000  64.3119 160.0000
