  
       XFOIL         Version 6.99
  
 Calculated polar for: Airfoil                                         
  
 1 1 Reynolds number fixed          Mach number fixed         
  
 xtrf =   1.000 (top)        1.000 (bottom)  
 Mach =   0.000     Re =     0.200 e 6     Ncrit =   9.000  9.000
  
   alpha    CL        CD       CDp       CM     Top_Xtr  Bot_Xtr  Top_Itr  Bot_Itr
  ------ -------- --------- --------- -------- -------- -------- -------- --------
   0.500   1.2825   0.02079   0.00669  -0.2547   0.4374   0.0674  36.1267 103.0699
   1.000   1.3476   0.02048   0.00639  -0.2559   0.4266   0.0637  36.7256 102.7308
   1.500   1.4150   0.02074   0.00621  -0.2578   0.4165   0.0655  37.2826 102.9050
   2.500   1.5424   0.02149   0.00678  -0.2605   0.3975   0.4574  38.3443 124.8873
   3.000   1.5886   0.02231   0.00737  -0.2579   0.3893   0.5234  38.8102 128.5035
   3.500   1.6359   0.02324   0.00801  -0.2557   0.3813   0.5677  39.2594 131.0274
   4.000   1.6843   0.02384   0.00838  -0.2538   0.3729   0.5953  39.7396 132.6478
   4.500   1.7377   0.02469   0.00874  -0.2533   0.3655   0.6153  40.1627 133.8341
   5.000   1.7848   0.02514   0.00884  -0.2515   0.3555   0.6352  40.7376 135.0311
   5.500   1.8270   0.02548   0.00868  -0.2487   0.3426   0.6542  41.4890 136.1817
   6.000   1.8770   0.02620   0.00866  -0.2477   0.3340   0.6755  41.9908 137.4796
   6.500   1.9176   0.02683   0.00901  -0.2448   0.3247   0.6982  42.5407 138.8609
   7.000   1.9626   0.02760   0.00902  -0.2430   0.3164   0.7233  43.0330 140.3916
   7.500   2.0001   0.02844   0.00953  -0.2397   0.3088   0.7544  43.4893 142.2852
   8.500   2.0650   0.03026   0.01010  -0.2314   0.2931   1.0000  44.4412 160.0000
   9.000   2.0971   0.03149   0.01039  -0.2275   0.2863   1.0000  44.8585 160.0000
   9.500   2.1244   0.03303   0.01103  -0.2229   0.2793   1.0000  45.2886 160.0000
  10.000   2.1485   0.03464   0.01168  -0.2179   0.2725   1.0000  45.7119 160.0000
  10.500   2.1737   0.03649   0.01230  -0.2135   0.2662   1.0000  46.1077 160.0000
  11.000   2.1866   0.03876   0.01347  -0.2075   0.2585   1.0000  46.5975 160.0000
  11.500   2.2008   0.04125   0.01442  -0.2023   0.2509   1.0000  47.0744 160.0000
  12.000   2.2067   0.04449   0.01631  -0.1968   0.2435   1.0000  47.5576 160.0000
  12.500   2.2149   0.04797   0.01796  -0.1923   0.2369   1.0000  47.9778 160.0000
  13.000   2.2124   0.05274   0.02105  -0.1880   0.2300   1.0000  48.4331 160.0000
  13.500   2.2093   0.05806   0.02425  -0.1848   0.2232   1.0000  48.8792 160.0000
  14.000   2.1997   0.06485   0.02887  -0.1828   0.2165   1.0000  49.3314 160.0000
  14.500   2.1854   0.07284   0.03442  -0.1820   0.2091   1.0000  49.8300 160.0000
  15.000   2.1644   0.08254   0.04167  -0.1826   0.2015   1.0000  50.3450 160.0000
  15.500   2.1404   0.09317   0.05002  -0.1843   0.1935   1.0000  50.8979 160.0000
  16.000   2.1088   0.10569   0.06113  -0.1876   0.1853   1.0000  51.4681 160.0000
