  
       XFOIL         Version 6.99
  
 Calculated polar for: Airfoil                                         
  
 1 1 Reynolds number fixed          Mach number fixed         
  
 xtrf =   1.000 (top)        1.000 (bottom)  
 Mach =   0.000     Re =     0.200 e 6     Ncrit =   9.000  9.000
  
   alpha    CL        CD       CDp       CM     Top_Xtr  Bot_Xtr  Top_Itr  Bot_Itr
  ------ -------- --------- --------- -------- -------- -------- -------- --------
   1.000   1.1811   0.01684   0.00327  -0.2498   0.5914   0.0422  26.8145 101.7624
   1.500   1.2491   0.01690   0.00289  -0.2520   0.5642   0.0400  28.0423 101.3223
   2.000   1.3138   0.01719   0.00265  -0.2537   0.5401   0.0596  29.1306 104.9061
   2.500   1.3647   0.01658   0.00333  -0.2525   0.5205   1.0000  30.0205 160.0000
   3.000   1.4161   0.01731   0.00348  -0.2515   0.5020   1.0000  30.8705 160.0000
   3.500   1.4672   0.01806   0.00374  -0.2505   0.4854   1.0000  31.6376 160.0000
   4.000   1.5199   0.01888   0.00403  -0.2499   0.4701   1.0000  32.3492 160.0000
   4.500   1.5761   0.01979   0.00428  -0.2501   0.4559   1.0000  33.0145 160.0000
   5.000   1.6195   0.02051   0.00466  -0.2476   0.4426   1.0000  33.6479 160.0000
   5.500   1.6673   0.02139   0.00496  -0.2461   0.4290   1.0000  34.3026 160.0000
   6.000   1.7102   0.02225   0.00511  -0.2436   0.4137   1.0000  35.0492 160.0000
   6.500   1.7463   0.02304   0.00547  -0.2398   0.4009   1.0000  35.6828 160.0000
   7.000   1.7920   0.02403   0.00580  -0.2380   0.3898   1.0000  36.2403 160.0000
   7.500   1.8311   0.02495   0.00608  -0.2350   0.3783   1.0000  36.8243 160.0000
   8.000   1.8675   0.02601   0.00646  -0.2315   0.3666   1.0000  37.4292 160.0000
   8.500   1.9037   0.02710   0.00663  -0.2281   0.3544   1.0000  38.0685 160.0000
   9.000   1.9254   0.02826   0.00702  -0.2221   0.3405   1.0000  38.8119 160.0000
   9.500   1.9485   0.02962   0.00748  -0.2166   0.3265   1.0000  39.5829 160.0000
  10.000   1.9720   0.03116   0.00798  -0.2114   0.3131   1.0000  40.3335 160.0000
  10.500   1.9916   0.03295   0.00860  -0.2059   0.2990   1.0000  41.1448 160.0000
  11.000   2.0088   0.03503   0.00941  -0.2004   0.2845   1.0000  41.9969 160.0000
  11.500   2.0278   0.03723   0.01046  -0.1955   0.2714   1.0000  42.7997 160.0000
  12.000   2.0440   0.03981   0.01169  -0.1907   0.2581   1.0000  43.6317 160.0000
  12.500   2.0555   0.04289   0.01328  -0.1857   0.2435   1.0000  44.5771 160.0000
  13.000   2.0617   0.04667   0.01538  -0.1808   0.2270   1.0000  45.6803 160.0000
  13.500   2.0613   0.05142   0.01825  -0.1760   0.2091   1.0000  46.9422 160.0000
  14.000   2.0552   0.05726   0.02206  -0.1719   0.1868   1.0000  48.6066 160.0000
  14.500   2.0348   0.06547   0.02790  -0.1685   0.1605   1.0000  50.7477 160.0000
  15.000   1.9987   0.07686   0.03676  -0.1669   0.1313   1.0000  53.4167 160.0000
