  
       XFOIL         Version 6.99
  
 Calculated polar for: Generated Airfoil G2N26                         
  
 1 1 Reynolds number fixed          Mach number fixed         
  
 xtrf =   1.000 (top)        1.000 (bottom)  
 Mach =   0.000     Re =     0.200 e 6     Ncrit =   9.000  9.000
  
   alpha    CL        CD       CDp       CM     Top_Xtr  Bot_Xtr  Top_Itr  Bot_Itr
  ------ -------- --------- --------- -------- -------- -------- -------- --------
   0.000   1.1081   0.01677   0.00412  -0.2548   0.4781   0.4302  33.9278 123.4973
   0.500   1.1645   0.01725   0.00444  -0.2542   0.4628   0.4730  34.7032 125.5613
   1.000   1.2198   0.01786   0.00480  -0.2534   0.4488   0.5125  35.4205 127.4947
   1.500   1.2756   0.01859   0.00515  -0.2527   0.4364   0.5485  36.0540 129.3116
   2.000   1.3280   0.01912   0.00552  -0.2514   0.4243   0.5818  36.6794 131.0510
   2.500   1.3808   0.01980   0.00592  -0.2501   0.4134   0.6093  37.2501 132.5413
   3.000   1.4341   0.02040   0.00623  -0.2491   0.4031   0.6374  37.7913 134.1035
   3.500   1.4865   0.02108   0.00664  -0.2479   0.3931   0.6617  38.3183 135.4900
   4.000   1.5400   0.02171   0.00690  -0.2471   0.3836   0.6869  38.8230 136.9525
   4.500   1.5924   0.02244   0.00735  -0.2461   0.3746   0.7088  39.3064 138.2447
   5.000   1.6422   0.02297   0.00741  -0.2446   0.3637   0.7308  39.9005 139.5558
   5.500   1.6895   0.02353   0.00765  -0.2426   0.3525   0.7528  40.5154 140.8854
   6.000   1.7418   0.02429   0.00776  -0.2418   0.3432   0.7747  41.0281 142.2246
   6.500   1.7855   0.02481   0.00806  -0.2391   0.3332   0.7974  41.5859 143.6371
   7.000   1.8347   0.02562   0.00819  -0.2378   0.3247   0.8228  42.0645 145.2457
   7.500   1.8760   0.02628   0.00860  -0.2348   0.3163   0.8543  42.5468 147.2845
   8.000   1.9176   0.02694   0.00870  -0.2321   0.3091   1.0000  42.9616 160.0000
   8.500   1.9608   0.02801   0.00917  -0.2298   0.3006   1.0000  43.4587 160.0000
   9.000   2.0057   0.02905   0.00914  -0.2279   0.2919   1.0000  43.9716 160.0000
   9.500   2.0362   0.03022   0.00966  -0.2232   0.2836   1.0000  44.4742 160.0000
  10.000   2.0712   0.03138   0.00970  -0.2195   0.2751   1.0000  44.9861 160.0000
  10.500   2.0875   0.03269   0.01029  -0.2124   0.2649   1.0000  45.6108 160.0000
  11.000   2.1093   0.03426   0.01071  -0.2067   0.2553   1.0000  46.2108 160.0000
  11.500   2.1268   0.03606   0.01138  -0.2007   0.2454   1.0000  46.8411 160.0000
  12.000   2.1431   0.03828   0.01242  -0.1950   0.2358   1.0000  47.4591 160.0000
  12.500   2.1558   0.04090   0.01353  -0.1893   0.2268   1.0000  48.0471 160.0000
  13.000   2.1646   0.04401   0.01528  -0.1838   0.2168   1.0000  48.7216 160.0000
  13.500   2.1689   0.04783   0.01746  -0.1786   0.2072   1.0000  49.3758 160.0000
  14.000   2.1657   0.05269   0.02037  -0.1740   0.1978   1.0000  50.0200 160.0000
  14.500   2.1605   0.05847   0.02427  -0.1706   0.1877   1.0000  50.7397 160.0000
  15.000   2.1476   0.06586   0.02946  -0.1684   0.1778   1.0000  51.4515 160.0000
