  
       XFOIL         Version 6.99
  
 Calculated polar for: S1223                                           
  
 1 1 Reynolds number fixed          Mach number fixed         
  
 xtrf =   1.000 (top)        1.000 (bottom)  
 Mach =   0.000     Re =     0.200 e 6     Ncrit =   9.000  9.000
  
   alpha    CL        CD       CDp       CM     Top_Xtr  Bot_Xtr  Top_Itr  Bot_Itr
  ------ -------- --------- --------- -------- -------- -------- -------- --------
   0.000   1.1808   0.01791   0.00423  -0.2700   0.4861   0.2904  33.7517 117.3019
   0.500   1.2383   0.01871   0.00477  -0.2700   0.4744   0.3534  34.3325 120.4417
   1.000   1.2999   0.01923   0.00488  -0.2710   0.4645   0.3836  34.8267 121.9679
   1.500   1.3623   0.01973   0.00514  -0.2722   0.4556   0.4115  35.2737 123.3864
   2.000   1.4225   0.02019   0.00537  -0.2729   0.4470   0.4503  35.7059 125.3691
   2.500   1.4883   0.02093   0.00574  -0.2750   0.4400   0.5136  36.0604 128.6336
   3.000   1.5455   0.02140   0.00622  -0.2751   0.4327   0.6129  36.4318 133.8159
   3.500   1.5949   0.02172   0.00669  -0.2733   0.4264   0.8128  36.7515 144.7725
   4.500   1.6975   0.02325   0.00749  -0.2714   0.4151   1.0000  37.3395 160.0000
   5.000   1.7513   0.02409   0.00790  -0.2710   0.4090   1.0000  37.6550 160.0000
   5.500   1.8097   0.02514   0.00826  -0.2717   0.4037   1.0000  37.9319 160.0000
   6.000   1.8580   0.02616   0.00890  -0.2702   0.3978   1.0000  38.2440 160.0000
   7.000   1.9602   0.02798   0.00957  -0.2686   0.3855   1.0000  38.8952 160.0000
   7.500   2.0042   0.02916   0.01020  -0.2665   0.3791   1.0000  39.2403 160.0000
   8.000   2.0463   0.03000   0.01050  -0.2639   0.3718   1.0000  39.6370 160.0000
   8.500   2.1017   0.03107   0.01054  -0.2641   0.3654   1.0000  39.9834 160.0000
   9.000   2.1310   0.03216   0.01116  -0.2591   0.3581   1.0000  40.3884 160.0000
   9.500   2.1725   0.03280   0.01090  -0.2564   0.3502   1.0000  40.8270 160.0000
  10.000   2.2032   0.03401   0.01115  -0.2519   0.3421   1.0000  41.2805 160.0000
  10.500   2.2304   0.03478   0.01087  -0.2466   0.3334   1.0000  41.7751 160.0000
  11.000   2.2472   0.03604   0.01096  -0.2396   0.3248   1.0000  42.2691 160.0000
  11.500   2.2627   0.03719   0.01095  -0.2324   0.3160   1.0000  42.7812 160.0000
  12.000   2.2746   0.03898   0.01139  -0.2252   0.3074   1.0000  43.2944 160.0000
  12.500   2.2847   0.04072   0.01167  -0.2180   0.2981   1.0000  43.8543 160.0000
  13.000   2.2838   0.04348   0.01285  -0.2099   0.2879   1.0000  44.4898 160.0000
  13.500   2.2871   0.04625   0.01380  -0.2031   0.2776   1.0000  45.1467 160.0000
  14.000   2.2809   0.05008   0.01566  -0.1961   0.2655   1.0000  45.9327 160.0000
  14.500   2.2680   0.05525   0.01871  -0.1899   0.2517   1.0000  46.8637 160.0000
  15.000   2.2508   0.06178   0.02281  -0.1851   0.2365   1.0000  47.9038 160.0000
  15.500   2.2249   0.07035   0.02868  -0.1817   0.2205   1.0000  49.0172 160.0000
  16.000   2.1895   0.08145   0.03709  -0.1804   0.2038   1.0000  50.1981 160.0000
