  
       XFOIL         Version 6.99
  
 Calculated polar for: S1223                                           
  
 1 1 Reynolds number fixed          Mach number fixed         
  
 xtrf =   1.000 (top)        1.000 (bottom)  
 Mach =   0.000     Re =     1.000 e 6     Ncrit =   9.000  9.000
  
   alpha    CL        CD       CDp       CM     Top_Xtr  Bot_Xtr  Top_Itr  Bot_Itr
  ------ -------- --------- --------- -------- -------- -------- -------- --------
   0.250   1.2364   0.01171   0.00107  -0.2754   0.3810   0.1841  39.1362 112.0227
   0.500   1.2655   0.01179   0.00112  -0.2755   0.3779   0.2168  39.3038 113.6935
   0.750   1.2935   0.01190   0.00117  -0.2753   0.3747   0.2360  39.4766 114.6329
   1.000   1.3211   0.01205   0.00121  -0.2751   0.3714   0.2514  39.6578 115.3891
   1.250   1.3480   0.01224   0.00127  -0.2748   0.3674   0.2673  39.8728 116.1654
   1.500   1.3754   0.01240   0.00133  -0.2745   0.3644   0.2816  40.0388 116.8685
   1.750   1.4033   0.01249   0.00135  -0.2743   0.3626   0.2941  40.1384 117.4815
   2.000   1.4307   0.01261   0.00138  -0.2741   0.3606   0.3077  40.2496 118.1570
   2.250   1.4582   0.01275   0.00142  -0.2739   0.3583   0.3236  40.3733 118.9464
   2.500   1.4855   0.01289   0.00147  -0.2736   0.3560   0.3417  40.5019 119.8534
   2.750   1.5125   0.01306   0.00152  -0.2733   0.3536   0.3617  40.6344 120.8622
