  
       XFOIL         Version 6.99
  
 Calculated polar for: S1223                                           
  
 1 1 Reynolds number fixed          Mach number fixed         
  
 xtrf =   1.000 (top)        1.000 (bottom)  
 Mach =   0.000     Re =     1.000 e 6     Ncrit =   9.000  9.000
  
   alpha    CL        CD       CDp       CM     Top_Xtr  Bot_Xtr  Top_Itr  Bot_Itr
  ------ -------- --------- --------- -------- -------- -------- -------- --------
   0.250   1.2364   0.01171   0.00107  -0.2754   0.3810   0.1841  39.1362 112.0227
   0.500   1.2655   0.01179   0.00112  -0.2755   0.3779   0.2168  39.3038 113.6935
   0.750   1.2935   0.01190   0.00117  -0.2753   0.3747   0.2360  39.4766 114.6329
   1.000   1.3211   0.01205   0.00121  -0.2751   0.3714   0.2514  39.6578 115.3891
   1.250   1.3480   0.01224   0.00127  -0.2748   0.3674   0.2673  39.8728 116.1654
   1.500   1.3754   0.01240   0.00133  -0.2745   0.3644   0.2816  40.0388 116.8685
   1.750   1.4033   0.01249   0.00135  -0.2743   0.3626   0.2941  40.1384 117.4815
   2.000   1.4307   0.01261   0.00138  -0.2741   0.3606   0.3077  40.2496 118.1570
   2.250   1.4582   0.01275   0.00142  -0.2739   0.3583   0.3236  40.3733 118.9464
   2.500   1.4855   0.01289   0.00147  -0.2736   0.3560   0.3417  40.5019 119.8534
   2.750   1.5125   0.01306   0.00152  -0.2733   0.3536   0.3617  40.6344 120.8622
   3.250   1.5655   0.01352   0.00168  -0.2726   0.3477   0.4100  40.9657 123.3104
   3.500   1.5926   0.01366   0.00173  -0.2723   0.3461   0.4395  41.0514 124.8159
   3.750   1.6199   0.01379   0.00178  -0.2721   0.3447   0.4720  41.1323 126.4833
   4.000   1.6470   0.01394   0.00183  -0.2719   0.3432   0.5101  41.2212 128.4544
   4.250   1.6742   0.01409   0.00190  -0.2717   0.3415   0.5555  41.3163 130.8089
   4.500   1.7015   0.01426   0.00196  -0.2715   0.3396   0.6068  41.4215 133.4976
   4.750   1.7286   0.01444   0.00203  -0.2713   0.3374   0.6686  41.5507 136.7769
   5.000   1.7558   0.01465   0.00213  -0.2711   0.3346   0.7524  41.7099 141.3406
   5.750   1.8232   0.01516   0.00236  -0.2675   0.3277   1.0000  42.1019 160.0000
   6.000   1.8480   0.01534   0.00236  -0.2669   0.3257   1.0000  42.2172 160.0000
   6.250   1.8725   0.01555   0.00236  -0.2661   0.3236   1.0000  42.3425 160.0000
   6.500   1.8966   0.01579   0.00238  -0.2653   0.3215   1.0000  42.4630 160.0000
   6.750   1.9203   0.01605   0.00240  -0.2645   0.3192   1.0000  42.5951 160.0000
   7.000   1.9433   0.01637   0.00244  -0.2635   0.3166   1.0000  42.7465 160.0000
   7.250   1.9654   0.01679   0.00252  -0.2624   0.3130   1.0000  42.9531 160.0000
   7.500   1.9889   0.01701   0.00251  -0.2615   0.3110   1.0000  43.0749 160.0000
   7.750   2.0126   0.01720   0.00250  -0.2606   0.3088   1.0000  43.2087 160.0000
   8.000   2.0357   0.01744   0.00249  -0.2597   0.3062   1.0000  43.3645 160.0000
   8.250   2.0581   0.01772   0.00248  -0.2587   0.3030   1.0000  43.5587 160.0000
   8.500   2.0793   0.01809   0.00250  -0.2574   0.2986   1.0000  43.8203 160.0000
   8.750   2.1007   0.01846   0.00252  -0.2562   0.2947   1.0000  44.0615 160.0000
   9.000   2.1238   0.01868   0.00250  -0.2553   0.2919   1.0000  44.2347 160.0000
   9.250   2.1458   0.01898   0.00249  -0.2543   0.2885   1.0000  44.4532 160.0000
   9.500   2.1665   0.01936   0.00251  -0.2530   0.2846   1.0000  44.6991 160.0000
   9.750   2.1857   0.01986   0.00257  -0.2514   0.2803   1.0000  44.9688 160.0000
  10.000   2.2072   0.02018   0.00258  -0.2503   0.2774   1.0000  45.1597 160.0000
