  
       XFOIL         Version 6.99
  
 Calculated polar for: Airfoil                                         
  
 1 1 Reynolds number fixed          Mach number fixed         
  
 xtrf =   1.000 (top)        1.000 (bottom)  
 Mach =   0.000     Re =     1.000 e 6     Ncrit =   9.000  9.000
  
   alpha    CL        CD       CDp       CM     Top_Xtr  Bot_Xtr  Top_Itr  Bot_Itr
  ------ -------- --------- --------- -------- -------- -------- -------- --------
   0.250   1.1907   0.01155   0.00075  -0.2650   0.4112   0.0372  38.1732 100.2540
   0.500   1.2292   0.01135   0.00073  -0.2674   0.4060   0.1679  38.4556 110.3796
   0.750   1.2588   0.01143   0.00081  -0.2677   0.4005   0.2289  38.7550 113.5216
   1.000   1.2862   0.01158   0.00086  -0.2674   0.3951   0.2549  39.0498 114.8123
   1.250   1.3138   0.01167   0.00089  -0.2672   0.3911   0.2747  39.2705 115.7954
   1.500   1.3408   0.01181   0.00093  -0.2669   0.3850   0.2924  39.6049 116.6886
   1.750   1.3673   0.01200   0.00097  -0.2664   0.3761   0.3080  40.0918 117.4818
   2.000   1.3942   0.01213   0.00100  -0.2661   0.3704   0.3252  40.4151 118.3652
   2.250   1.4203   0.01231   0.00103  -0.2656   0.3647   0.3379  40.7330 119.0232
   2.500   1.4468   0.01249   0.00108  -0.2652   0.3590   0.3515  41.0533 119.7328
   2.750   1.4735   0.01261   0.00111  -0.2648   0.3546   0.3656  41.3006 120.4745
   3.000   1.4997   0.01278   0.00115  -0.2644   0.3497   0.3800  41.5835 121.2295
   3.250   1.5256   0.01300   0.00121  -0.2639   0.3444   0.3976  41.8865 122.1578
   3.500   1.5521   0.01315   0.00125  -0.2635   0.3388   0.4186  42.2068 123.2672
   3.750   1.5784   0.01333   0.00129  -0.2631   0.3322   0.4440  42.5895 124.6065
   4.000   1.6043   0.01358   0.00137  -0.2627   0.3244   0.4802  43.0480 126.5038
   4.250   1.6310   0.01374   0.00143  -0.2624   0.3175   0.5292  43.4550 129.0741
   4.500   1.6570   0.01399   0.00152  -0.2620   0.3103   0.5837  43.8792 131.9647
   4.750   1.6837   0.01418   0.00161  -0.2617   0.3054   0.6451  44.1752 135.2897
   5.000   1.7106   0.01436   0.00171  -0.2615   0.2997   0.7269  44.5227 139.7929
   5.250   1.7299   0.01437   0.00189  -0.2597   0.2937   0.9705  44.8827 156.1725
   5.500   1.7540   0.01463   0.00192  -0.2588   0.2883   1.0000  45.2180 160.0000
   5.750   1.7775   0.01494   0.00198  -0.2579   0.2808   1.0000  45.6804 160.0000
   6.000   1.8005   0.01528   0.00205  -0.2569   0.2742   1.0000  46.0957 160.0000
   6.250   1.8235   0.01560   0.00212  -0.2560   0.2669   1.0000  46.5578 160.0000
   6.500   1.8456   0.01600   0.00221  -0.2548   0.2585   1.0000  47.0930 160.0000
   6.750   1.8678   0.01638   0.00230  -0.2537   0.2500   1.0000  47.6435 160.0000
   7.000   1.8894   0.01681   0.00241  -0.2525   0.2420   1.0000  48.1654 160.0000
   7.250   1.9106   0.01725   0.00252  -0.2513   0.2330   1.0000  48.7649 160.0000
   7.500   1.9315   0.01771   0.00265  -0.2500   0.2244   1.0000  49.3467 160.0000
   7.750   1.9506   0.01831   0.00284  -0.2484   0.2123   1.0000  50.1742 160.0000
   8.000   1.9661   0.01922   0.00319  -0.2462   0.1899   1.0000  51.7536 160.0000
   8.250   1.9774   0.02048   0.00376  -0.2434   0.1610   1.0000  53.8784 160.0000
   8.500   1.9772   0.02269   0.00493  -0.2386   0.1120   1.0000  57.7973 160.0000
   8.750   1.9616   0.02608   0.00691  -0.2315   0.0492   1.0000  64.1885 160.0000
   9.000   1.9689   0.02752   0.00769  -0.2282   0.0350   1.0000  66.3938 160.0000
   9.250   1.9789   0.02871   0.00830  -0.2254   0.0281   1.0000  67.7462 160.0000
   9.500   1.9891   0.02992   0.00892  -0.2227   0.0229   1.0000  68.9782 160.0000
   9.750   1.9896   0.03194   0.01010  -0.2187   0.0081   1.0000  75.0202 160.0000
  10.000   2.0001   0.03312   0.01072  -0.2162   0.0078   1.0000  75.2282 160.0000
