  
       XFOIL         Version 6.99
  
 Calculated polar for: Airfoil                                         
  
 1 1 Reynolds number fixed          Mach number fixed         
  
 xtrf =   1.000 (top)        1.000 (bottom)  
 Mach =   0.000     Re =     0.200 e 6     Ncrit =   9.000  9.000
  
   alpha    CL        CD       CDp       CM     Top_Xtr  Bot_Xtr  Top_Itr  Bot_Itr
  ------ -------- --------- --------- -------- -------- -------- -------- --------
   0.000   1.0859   0.01808   0.00482  -0.2342   0.4465   0.0622  35.5471 102.9433
   0.500   1.1643   0.01792   0.00480  -0.2388   0.4353   0.2757  36.1351 115.5688
   1.000   1.2211   0.01841   0.00522  -0.2384   0.4250   0.3851  36.6855 121.3518
   1.500   1.2802   0.01903   0.00557  -0.2387   0.4161   0.4542  37.1635 125.0579
   2.500   1.3988   0.01990   0.00621  -0.2394   0.3983   0.6022  38.1257 133.0337
   3.000   1.4279   0.01965   0.00668  -0.2329   0.3908   1.0000  38.5355 160.0000
   3.500   1.4873   0.02049   0.00684  -0.2334   0.3830   1.0000  38.9667 160.0000
   4.000   1.5404   0.02122   0.00739  -0.2326   0.3752   1.0000  39.3975 160.0000
   4.500   1.5948   0.02190   0.00763  -0.2321   0.3675   1.0000  39.8274 160.0000
   5.000   1.6437   0.02250   0.00782  -0.2305   0.3570   1.0000  40.4219 160.0000
   5.500   1.6954   0.02311   0.00787  -0.2295   0.3486   1.0000  40.8996 160.0000
   6.000   1.7440   0.02394   0.00838  -0.2279   0.3407   1.0000  41.3519 160.0000
   6.500   1.7922   0.02449   0.00837  -0.2263   0.3320   1.0000  41.8561 160.0000
   7.000   1.8400   0.02547   0.00891  -0.2247   0.3252   1.0000  42.2588 160.0000
   7.500   1.8859   0.02624   0.00922  -0.2227   0.3178   1.0000  42.6958 160.0000
   8.000   1.9323   0.02716   0.00943  -0.2210   0.3106   1.0000  43.1247 160.0000
   8.500   1.9708   0.02782   0.00962  -0.2177   0.3015   1.0000  43.6745 160.0000
   9.000   2.0134   0.02878   0.00977  -0.2153   0.2942   1.0000  44.1147 160.0000
   9.500   2.0494   0.02984   0.01030  -0.2118   0.2870   1.0000  44.5590 160.0000
  10.000   2.0899   0.03089   0.01038  -0.2092   0.2806   1.0000  44.9579 160.0000
  10.500   2.1114   0.03216   0.01096  -0.2031   0.2723   1.0000  45.4837 160.0000
  11.000   2.1301   0.03327   0.01097  -0.1967   0.2625   1.0000  46.1070 160.0000
  11.500   2.1412   0.03482   0.01153  -0.1895   0.2514   1.0000  46.8231 160.0000
  12.000   2.1564   0.03689   0.01250  -0.1836   0.2425   1.0000  47.4095 160.0000
  12.500   2.1693   0.03929   0.01351  -0.1780   0.2346   1.0000  47.9408 160.0000
  13.000   2.1774   0.04236   0.01528  -0.1725   0.2260   1.0000  48.5245 160.0000
  13.500   2.1791   0.04617   0.01735  -0.1674   0.2180   1.0000  49.0723 160.0000
  14.000   2.1747   0.05111   0.02052  -0.1631   0.2087   1.0000  49.7178 160.0000
  14.500   2.1624   0.05765   0.02492  -0.1603   0.2000   1.0000  50.3367 160.0000
  15.000   2.1402   0.06646   0.03116  -0.1595   0.1910   1.0000  50.9868 160.0000
  15.500   2.1101   0.07774   0.03981  -0.1609   0.1810   1.0000  51.7174 160.0000
  16.000   2.0689   0.09158   0.05109  -0.1643   0.1713   1.0000  52.4457 160.0000
