  
       XFOIL         Version 6.99
  
 Calculated polar for: Airfoil                                         
  
 1 1 Reynolds number fixed          Mach number fixed         
  
 xtrf =   1.000 (top)        1.000 (bottom)  
 Mach =   0.000     Re =     1.000 e 6     Ncrit =   9.000  9.000
  
   alpha    CL        CD       CDp       CM     Top_Xtr  Bot_Xtr  Top_Itr  Bot_Itr
  ------ -------- --------- --------- -------- -------- -------- -------- --------
   0.000   1.1889   0.01194   0.00115  -0.2710   0.3901   0.0341  38.0421  99.5725
   0.250   1.2198   0.01194   0.00109  -0.2714   0.3878   0.0416  38.1694 100.9935
   0.500   1.2603   0.01173   0.00113  -0.2743   0.3845   0.2063  38.3448 113.5714
   0.750   1.2890   0.01183   0.00118  -0.2744   0.3811   0.2419  38.5253 115.3253
   1.000   1.3167   0.01197   0.00123  -0.2742   0.3774   0.2648  38.7227 116.4335
   1.250   1.3437   0.01217   0.00129  -0.2738   0.3729   0.2828  38.9604 117.3075
   1.500   1.3710   0.01229   0.00133  -0.2735   0.3709   0.2986  39.0701 118.0782
   1.750   1.3986   0.01239   0.00136  -0.2733   0.3689   0.3158  39.1786 118.9315
   2.000   1.4261   0.01250   0.00139  -0.2731   0.3665   0.3319  39.3059 119.7425
   2.250   1.4531   0.01264   0.00142  -0.2728   0.3639   0.3440  39.4475 120.3507
   2.750   1.5064   0.01299   0.00151  -0.2720   0.3578   0.3715  39.7812 121.7491
   3.000   1.5324   0.01325   0.00159  -0.2715   0.3538   0.3876  40.0018 122.5737
   3.250   1.5597   0.01334   0.00161  -0.2713   0.3522   0.4063  40.0922 123.5304
   3.500   1.5869   0.01345   0.00163  -0.2710   0.3498   0.4282  40.2272 124.6572
   3.750   1.6139   0.01358   0.00166  -0.2708   0.3468   0.4583  40.3959 126.1933
   4.000   1.6408   0.01375   0.00171  -0.2705   0.3434   0.4985  40.5868 128.2422
   4.250   1.6673   0.01396   0.00178  -0.2702   0.3397   0.5492  40.7944 130.8387
   4.500   1.6935   0.01423   0.00189  -0.2698   0.3359   0.6073  41.0040 133.8645
   4.750   1.7211   0.01435   0.00194  -0.2697   0.3347   0.6685  41.0774 137.1202
   5.000   1.7490   0.01446   0.00203  -0.2696   0.3329   0.7571  41.1803 141.9125
   5.500   1.7929   0.01459   0.00215  -0.2670   0.3285   1.0000  41.4324 160.0000
   5.750   1.8173   0.01484   0.00218  -0.2662   0.3260   1.0000  41.5764 160.0000
   6.000   1.8411   0.01512   0.00221  -0.2653   0.3231   1.0000  41.7452 160.0000
   6.250   1.8640   0.01549   0.00228  -0.2643   0.3191   1.0000  41.9770 160.0000
   6.500   1.8888   0.01565   0.00226  -0.2636   0.3168   1.0000  42.1153 160.0000
   6.750   1.9133   0.01583   0.00224  -0.2629   0.3135   1.0000  42.3088 160.0000
   7.000   1.9370   0.01608   0.00225  -0.2621   0.3100   1.0000  42.5205 160.0000
   7.250   1.9599   0.01638   0.00227  -0.2611   0.3065   1.0000  42.7258 160.0000
   7.500   1.9819   0.01677   0.00233  -0.2600   0.3027   1.0000  42.9557 160.0000
   7.750   2.0052   0.01701   0.00234  -0.2591   0.3005   1.0000  43.0899 160.0000
   8.000   2.0284   0.01726   0.00235  -0.2582   0.2981   1.0000  43.2381 160.0000
   8.250   2.0508   0.01755   0.00237  -0.2571   0.2950   1.0000  43.4260 160.0000
   8.500   2.0726   0.01789   0.00239  -0.2560   0.2915   1.0000  43.6409 160.0000
   8.750   2.0933   0.01831   0.00245  -0.2546   0.2872   1.0000  43.9100 160.0000
   9.000   2.1152   0.01863   0.00247  -0.2536   0.2840   1.0000  44.1067 160.0000
   9.250   2.1373   0.01894   0.00248  -0.2525   0.2806   1.0000  44.3217 160.0000
   9.500   2.1584   0.01931   0.00251  -0.2513   0.2764   1.0000  44.5862 160.0000
   9.750   2.1778   0.01980   0.00258  -0.2498   0.2716   1.0000  44.8926 160.0000
  10.000   2.1981   0.02020   0.00262  -0.2485   0.2673   1.0000  45.1671 160.0000
